<?xml version="1.0" encoding="UTF-8"?>

<routes xmlns:xsi="http://www.w3.org/2001/XMLSchema-instance" xsi:noNamespaceSchemaLocation="http://sumo.dlr.de/xsd/routes_file.xsd">
    
    <!-- 车辆类型定义 - 优化版 -->
    <vType id="passenger" accel="2.8" decel="4.5" sigma="0.4" length="4.5" minGap="2.5" maxSpeed="36.11" guiShape="passenger" color="0,100,255"/>
    <vType id="truck" accel="2.2" decel="3.5" sigma="0.3" length="10.0" minGap="2.5" maxSpeed="30.00" guiShape="truck" color="255,165,0"/>
    <vType id="bus" accel="2.4" decel="4.0" sigma="0.3" length="11.0" minGap="2.5" maxSpeed="28.00" guiShape="bus" color="0,128,0"/>
    <vType id="motorcycle" accel="4.0" decel="6.5" sigma="0.5" length="2.2" minGap="1.2" maxSpeed="36.11" guiShape="motorcycle" color="255,0,0"/>
    <vType id="emergency" accel="3.2" decel="5.5" sigma="0.2" length="5.5" minGap="2.0" maxSpeed="36.11" guiShape="emergency" color="255,255,0"/>
    <vType id="delivery" accel="2.6" decel="4.2" sigma="0.3" length="6.0" minGap="2.0" maxSpeed="32.00" guiShape="delivery" color="139,69,19"/>

    <!-- 路径定义 -->
    <route id="r_1" edges="M1 M2 M3"/>              <!-- 主线直行 -->
    <route id="r_2" edges="onr M2 M3"/>             <!-- 上匝道汇入后直行 -->
    <route id="r_3" edges="M1 M2 offr"/>            <!-- 主线后下匝道 -->
    <route id="r_4" edges="onr M2 offr"/>           <!-- 上匝道汇入后下匝道 -->

    <!-- 主线车流 - 80%直行，20%下匝道 -->
    <!-- 主线直行流量 (M1-M2-M3) -->
    <flow id="f_1_passenger_through" route="r_1" begin="0" end="1600" vehsPerHour="336" type="passenger"/>
    <flow id="f_1_truck_through" route="r_1" begin="0" end="1600" vehsPerHour="72" type="truck"/>
    <flow id="f_1_bus_through" route="r_1" begin="0" end="1600" vehsPerHour="24" type="bus"/>
    <flow id="f_1_motorcycle_through" route="r_1" begin="0" end="1600" vehsPerHour="29" type="motorcycle"/>
    <flow id="f_1_emergency_through" route="r_1" begin="0" end="1600" vehsPerHour="5" type="emergency"/>
    <flow id="f_1_delivery_through" route="r_1" begin="0" end="1600" vehsPerHour="14" type="delivery"/>

    <!-- 主线分流到下匝道 (M1-M2-offr) -->
    <flow id="f_1_passenger_exit" route="r_3" begin="0" end="1600" vehsPerHour="84" type="passenger"/>
    <flow id="f_1_truck_exit" route="r_3" begin="0" end="1600" vehsPerHour="18" type="truck"/>
    <flow id="f_1_bus_exit" route="r_3" begin="0" end="1600" vehsPerHour="6" type="bus"/>
    <flow id="f_1_motorcycle_exit" route="r_3" begin="0" end="1600" vehsPerHour="7" type="motorcycle"/>
    <flow id="f_1_emergency_exit" route="r_3" begin="0" end="1600" vehsPerHour="1" type="emergency"/>
    <flow id="f_1_delivery_exit" route="r_3" begin="0" end="1600" vehsPerHour="4" type="delivery"/>

    <!-- 上匝道车流 - 70%直行，30%下匝道 -->
    <!-- 上匝道直行流量 (onr-M2-M3) -->
    <flow id="f_2_passenger_through" route="r_2" begin="0" end="1600" vehsPerHour="210" type="passenger"/>
    <flow id="f_2_truck_through" route="r_2" begin="0" end="1600" vehsPerHour="21" type="truck"/>
    <flow id="f_2_bus_through" route="r_2" begin="0" end="1600" vehsPerHour="7" type="bus"/>
    <flow id="f_2_motorcycle_through" route="r_2" begin="0" end="1600" vehsPerHour="25" type="motorcycle"/>
    <flow id="f_2_emergency_through" route="r_2" begin="0" end="1600" vehsPerHour="4" type="emergency"/>
    <flow id="f_2_delivery_through" route="r_2" begin="0" end="1600" vehsPerHour="14" type="delivery"/>

    <!-- 上匝道分流到下匝道 (onr-M2-offr) -->
    <flow id="f_2_passenger_exit" route="r_4" begin="0" end="1600" vehsPerHour="90" type="passenger"/>
    <flow id="f_2_truck_exit" route="r_4" begin="0" end="1600" vehsPerHour="9" type="truck"/>
    <flow id="f_2_bus_exit" route="r_4" begin="0" end="1600" vehsPerHour="3" type="bus"/>
    <flow id="f_2_motorcycle_exit" route="r_4" begin="0" end="1600" vehsPerHour="10" type="motorcycle"/>
    <flow id="f_2_emergency_exit" route="r_4" begin="0" end="1600" vehsPerHour="1" type="emergency"/>
    <flow id="f_2_delivery_exit" route="r_4" begin="0" end="1600" vehsPerHour="6" type="delivery"/>

</routes>